Version 4
SHEET 1 880 680
WIRE 368 48 -64 48
WIRE -64 80 -64 48
WIRE -32 80 -64 80
WIRE 80 80 48 80
WIRE 80 96 80 80
WIRE 224 96 80 96
WIRE 400 112 320 112
WIRE -64 128 -64 80
WIRE 368 144 368 48
WIRE 320 160 320 112
WIRE 336 160 320 160
WIRE 480 176 480 112
WIRE 480 176 400 176
WIRE 80 192 80 176
WIRE 128 192 80 192
WIRE 224 192 224 176
WIRE 240 192 240 160
WIRE 240 192 224 192
WIRE 336 192 304 192
WIRE 480 192 480 176
WIRE 624 192 480 192
WIRE -16 208 -64 208
WIRE 80 208 80 192
WIRE 224 208 224 192
WIRE -16 288 -16 208
WIRE 80 288 -16 288
WIRE 224 288 80 288
WIRE 368 288 368 208
WIRE 368 288 224 288
WIRE 624 288 624 272
WIRE 624 288 368 288
WIRE 128 336 128 192
WIRE 304 336 304 192
WIRE 304 336 208 336
WIRE 368 416 368 288
WIRE 368 416 304 416
FLAG 80 288 0
SYMBOL res 64 80 R0
SYMATTR InstName R1
SYMATTR Value 1k
SYMBOL res 208 80 R0
SYMATTR InstName R2
SYMATTR Value 1k
SYMBOL res 208 192 R0
SYMATTR InstName R3
SYMATTR Value 100
SYMBOL res 64 192 R0
SYMATTR InstName R4
SYMATTR Value {R}
SYMBOL voltage -64 112 R0
WINDOW 123 0 0 Left 2
WINDOW 39 0 0 Left 2
SYMATTR InstName V1
SYMATTR Value 4.7
SYMBOL res 336 144 R90
WINDOW 0 0 56 VBottom 2
WINDOW 3 32 56 VTop 2
SYMATTR InstName R5
SYMATTR Value 5.1k
SYMBOL res 496 96 R90
WINDOW 0 0 56 VBottom 2
WINDOW 3 32 56 VTop 2
SYMATTR InstName R6
SYMATTR Value 100k
SYMBOL res 640 288 R180
WINDOW 0 36 76 Left 2
WINDOW 3 36 40 Left 2
SYMATTR InstName R7
SYMATTR Value 100
SYMBOL res 288 320 R0
SYMATTR InstName R8
SYMATTR Value 100k
SYMBOL res 224 320 R90
WINDOW 0 0 56 VBottom 2
WINDOW 3 32 56 VTop 2
SYMATTR InstName R9
SYMATTR Value 5.1k
SYMBOL Opamps\\LT1366 368 112 R0
SYMATTR InstName U2
SYMBOL res 64 64 R90
WINDOW 0 0 56 VBottom 2
WINDOW 3 32 56 VTop 2
SYMATTR InstName R10
SYMATTR Value 1µ
TEXT 104 48 Left 2 !.step param R 100 125 1
TEXT 104 80 Left 2 !.op
